<flowdefs>
	
	<flow id="0" from="gneE18" begin="0" end="1000" number="100"/>
	
</flowdefs>
